.SUBCKT Gaussian VSS VDD clk reset sensor1 sensor2 sensor3 sensor4 sensor5 sensor6 central_value finestra_gaussiana1 finestra_gaussiana2 finestra_gaussiana3 finestra_gaussiana4 finestra_gaussiana5 finestra_gaussiana6
X2560 VSS VDD reset _0016_ INVERTER
X2561 VSS VDD clk _0015_ INVERTER
X2562 VSS VDD sensor4_7_ finestra_gaussiana4_3_ _0287_ NAND2
X2563 VSS VDD _0287_ _0298_ INVERTER
X2564 VSS VDD sensor4_6_ finestra_gaussiana4_4_ _0309_ NAND2
X2565 VSS VDD finestra_gaussiana4_5_ sensor4_5_ _0320_ NAND2
X2566 VSS VDD sensor4_6_ finestra_gaussiana4_5_ _0331_ NAND2
X2567 VSS VDD finestra_gaussiana4_4_ sensor4_5_ _0342_ NAND2
X2568 VSS VDD _0331_ _0342_ _0353_ NOR2
X2569 VSS VDD _0309_ _0320_ _0364_ XOR
X2570 VSS VDD _0298_ _0364_ _0375_ NAND2
X2571 VSS VDD sensor4_7_ finestra_gaussiana4_4_ _0386_ NAND2
X2572 VSS VDD sensor4_7_ finestra_gaussiana4_5_ _0397_ NAND2
X2573 VSS VDD _0309_ _0397_ _0408_ NOR2
X2574 VSS VDD _0331_ _0386_ _0419_ XOR
X2575 VSS VDD _0375_ _0419_ _0430_ XOR
X2576 VSS VDD finestra_gaussiana4_7_ sensor4_4_ _0441_ NAND2
X2577 VSS VDD finestra_gaussiana4_6_ _0353_ _0452_ NAND2
X2578 VSS VDD finestra_gaussiana4_6_ sensor4_5_ _0353_ _0463_ AOI21
X2579 VSS VDD finestra_gaussiana4_6_ _0353_ _0463_ _0474_ AOI21
X2580 VSS VDD finestra_gaussiana4_7_ sensor4_4_ _0474_ _0485_ AOI21
X2581 VSS VDD finestra_gaussiana4_6_ _0353_ _0441_ _0463_ _0496_ AOI211
X2582 VSS VDD finestra_gaussiana4_7_ sensor4_4_ _0474_ _0507_ NAND3
X2583 VSS VDD _0485_ _0496_ _0518_ NOR2
X2584 VSS VDD _0441_ _0474_ _0529_ XOR
X2585 VSS VDD _0430_ _0529_ _0540_ NOR2
X2586 VSS VDD _0298_ _0364_ _0419_ _0540_ _0551_ AOI31
X2587 VSS VDD finestra_gaussiana4_7_ sensor4_5_ _0562_ NAND2
X2588 VSS VDD finestra_gaussiana4_6_ _0408_ _0573_ NAND2
X2589 VSS VDD sensor4_6_ finestra_gaussiana4_6_ _0408_ _0584_ AOI21
X2590 VSS VDD finestra_gaussiana4_6_ _0408_ _0584_ _0595_ AOI21
X2591 VSS VDD _0562_ _0595_ _0606_ XOR
X2592 VSS VDD _0606_ _0617_ INVERTER
X2593 VSS VDD _0397_ _0606_ _0628_ NOR2
X2594 VSS VDD _0397_ _0606_ _0639_ XOR
X2595 VSS VDD _0397_ _0617_ _0650_ XOR
X2596 VSS VDD _0551_ _0650_ _0661_ NOR2
X2597 VSS VDD _0551_ _0639_ _0672_ XOR
X2598 VSS VDD _0441_ _0463_ _0452_ _0683_ OAI21
X2599 VSS VDD _0452_ _0507_ _0672_ _0694_ AOI21
X2600 VSS VDD _0661_ _0694_ _0705_ NOR2
X2601 VSS VDD finestra_gaussiana4_6_ sensor4_7_ _0716_ NAND2
X2602 VSS VDD finestra_gaussiana4_7_ sensor4_6_ _0727_ NAND2
X2603 VSS VDD finestra_gaussiana4_7_ sensor4_7_ _0738_ NAND2
X2604 VSS VDD _0716_ _0727_ _0749_ XOR
X2605 VSS VDD _0628_ _0749_ _0760_ NAND2
X2606 VSS VDD _0628_ _0749_ _0771_ XOR
X2607 VSS VDD _0562_ _0584_ _0573_ _0782_ OAI21
X2608 VSS VDD _0771_ _0782_ _0793_ NAND2
X2609 VSS VDD _0771_ _0782_ _0804_ XOR
X2610 VSS VDD _0661_ _0694_ _0804_ _0815_ OAI21
X2611 VSS VDD sensor4_5_ finestra_gaussiana4_3_ _0826_ NAND2
X2612 VSS VDD sensor4_7_ finestra_gaussiana4_1_ _0837_ NAND2
X2613 VSS VDD sensor4_5_ finestra_gaussiana4_1_ _0848_ NAND2
X2614 VSS VDD _0287_ _0848_ _0859_ NOR2
X2615 VSS VDD sensor4_6_ _0859_ _0870_ NAND2
X2616 VSS VDD sensor4_6_ finestra_gaussiana4_3_ _0881_ NAND2
X2617 VSS VDD sensor4_6_ finestra_gaussiana4_3_ _0859_ _0892_ AOI21
X2618 VSS VDD _0287_ _0848_ _0881_ _0903_ OAI21
X2619 VSS VDD sensor4_6_ _0859_ _0892_ _0914_ AOI21
X2620 VSS VDD _0870_ _0903_ _0925_ NAND2
X2621 VSS VDD finestra_gaussiana4_5_ sensor4_4_ _0936_ NAND2
X2622 VSS VDD sensor4_7_ finestra_gaussiana4_2_ _0947_ NAND2
X2623 VSS VDD sensor4_5_ finestra_gaussiana4_2_ _0958_ NAND2
X2624 VSS VDD _0386_ _0958_ _0969_ NOR2
X2625 VSS VDD _0342_ _0947_ _0980_ XOR
X2626 VSS VDD _0936_ _0980_ _0991_ XOR
X2627 VSS VDD _0892_ _0991_ _0870_ _1002_ OAI21
X2628 VSS VDD _0298_ _0364_ _1013_ XOR
X2629 VSS VDD _0287_ _0364_ _1024_ XOR
X2630 VSS VDD _1002_ _1024_ _1035_ XOR
X2631 VSS VDD finestra_gaussiana4_7_ sensor4_3_ _1046_ NAND2
X2632 VSS VDD finestra_gaussiana4_6_ sensor4_4_ _1057_ NAND2
X2633 VSS VDD finestra_gaussiana4_5_ sensor4_4_ _0980_ _0969_ _1068_ AOI31
X2634 VSS VDD _1057_ _1068_ _1079_ XOR
X2635 VSS VDD finestra_gaussiana4_7_ sensor4_3_ _1079_ _1090_ NAND3
X2636 VSS VDD _1046_ _1079_ _1101_ XOR
X2637 VSS VDD _1035_ _1101_ _1112_ NOR2
X2638 VSS VDD _1002_ _1013_ _1112_ _1123_ AOI21
X2639 VSS VDD _0430_ _0518_ _1134_ XOR
X2640 VSS VDD _1123_ _1134_ _1145_ NOR2
X2641 VSS VDD _1123_ _1134_ _1156_ XOR
X2642 VSS VDD _1057_ _1068_ _1090_ _1167_ OAI21
X2643 VSS VDD _1156_ _1167_ _1145_ _1178_ AOI21
X2644 VSS VDD _0672_ _0683_ _1189_ XOR
X2645 VSS VDD _1189_ _1200_ INVERTER
X2646 VSS VDD _1178_ _1189_ _1211_ NOR2
X2647 VSS VDD sensor4_7_ finestra_gaussiana4_0_ _1222_ NAND2
X2648 VSS VDD finestra_gaussiana4_3_ sensor4_4_ _1233_ NAND2
X2649 VSS VDD sensor4_4_ finestra_gaussiana4_0_ _1244_ NAND2
X2650 VSS VDD _0287_ _1244_ _1255_ NOR2
X2651 VSS VDD _1222_ _1233_ _1266_ XOR
X2652 VSS VDD sensor4_6_ finestra_gaussiana4_1_ _1277_ NAND2
X2653 VSS VDD sensor4_6_ finestra_gaussiana4_1_ _1266_ _1288_ NAND3
X2654 VSS VDD sensor4_6_ finestra_gaussiana4_1_ _1266_ _1255_ _1299_ AOI31
X2655 VSS VDD _0287_ _1244_ _1288_ _1310_ OAI21
X2656 VSS VDD _0826_ _0837_ _1321_ XOR
X2657 VSS VDD _1310_ _1321_ _1332_ NAND2
X2658 VSS VDD _1299_ _1321_ _1343_ XOR
X2659 VSS VDD finestra_gaussiana4_5_ sensor4_3_ _1354_ NAND2
X2660 VSS VDD finestra_gaussiana4_4_ sensor4_4_ _1365_ NAND2
X2661 VSS VDD sensor4_6_ finestra_gaussiana4_2_ _1376_ NAND2
X2662 VSS VDD sensor4_4_ finestra_gaussiana4_2_ _1387_ NAND2
X2663 VSS VDD _0309_ _1387_ _1398_ NOR2
X2664 VSS VDD _1365_ _1376_ _1409_ XOR
X2665 VSS VDD finestra_gaussiana4_5_ sensor4_3_ _1409_ _1420_ NAND3
X2666 VSS VDD _1354_ _1409_ _1431_ XOR
X2667 VSS VDD _1343_ _1431_ _1332_ _1442_ OAI21
X2668 VSS VDD _0925_ _0991_ _1453_ XOR
X2669 VSS VDD _0914_ _0991_ _1464_ XOR
X2670 VSS VDD _1442_ _1453_ _1475_ NAND2
X2671 VSS VDD _1442_ _1464_ _1486_ XOR
X2672 VSS VDD finestra_gaussiana4_7_ sensor4_2_ _1497_ NAND2
X2673 VSS VDD finestra_gaussiana4_6_ sensor4_3_ _1508_ NAND2
X2674 VSS VDD finestra_gaussiana4_5_ sensor4_3_ _1409_ _1398_ _1519_ AOI31
X2675 VSS VDD _0309_ _1387_ _1420_ _1530_ OAI21
X2676 VSS VDD finestra_gaussiana4_6_ sensor4_3_ _1530_ _1541_ NAND3
X2677 VSS VDD _1508_ _1519_ _1552_ XOR
X2678 VSS VDD finestra_gaussiana4_7_ sensor4_2_ _1552_ _1563_ NAND3
X2679 VSS VDD _1497_ _1552_ _1574_ XOR
X2680 VSS VDD _1486_ _1574_ _1475_ _1585_ OAI21
X2681 VSS VDD _1035_ _1101_ _1596_ XOR
X2682 VSS VDD _1585_ _1596_ _1607_ XOR
X2683 VSS VDD _1607_ _1618_ INVERTER
X2684 VSS VDD _1541_ _1563_ _1629_ NAND2
X2685 VSS VDD _1541_ _1563_ _1618_ _1640_ AOI21
X2686 VSS VDD _1585_ _1596_ _1640_ _1651_ AOI21
X2687 VSS VDD _1651_ _1662_ INVERTER
X2688 VSS VDD _1156_ _1167_ _1673_ XOR
X2689 VSS VDD _1662_ _1673_ _1684_ NAND2
X2690 VSS VDD _1651_ _1673_ _1695_ XOR
X2691 VSS VDD sensor4_6_ finestra_gaussiana4_0_ _1706_ NAND2
X2692 VSS VDD finestra_gaussiana4_3_ sensor4_3_ _1717_ NAND2
X2693 VSS VDD sensor4_3_ finestra_gaussiana4_0_ _1728_ NAND2
X2694 VSS VDD _0881_ _1728_ _1739_ NOR2
X2695 VSS VDD _1706_ _1717_ _1750_ XOR
X2696 VSS VDD sensor4_5_ finestra_gaussiana4_1_ _1750_ _1739_ _1761_ AOI31
X2697 VSS VDD _1266_ _1277_ _1772_ XOR
X2698 VSS VDD _1761_ _1772_ _1783_ XOR
X2699 VSS VDD finestra_gaussiana4_5_ sensor4_2_ _1793_ NAND2
X2700 VSS VDD finestra_gaussiana4_4_ sensor4_3_ _1804_ NAND2
X2701 VSS VDD _0958_ _1804_ _1814_ NAND2
X2702 VSS VDD finestra_gaussiana4_2_ sensor4_3_ _1822_ NAND2
X2703 VSS VDD _0342_ _1822_ _1823_ NOR2
X2704 VSS VDD _0342_ _1822_ _1814_ _1824_ OAI21
X2705 VSS VDD _1793_ _1824_ _1825_ XOR
X2706 VSS VDD _1783_ _1825_ _1826_ NAND2
X2707 VSS VDD _1761_ _1772_ _1826_ _1827_ OAI21
X2708 VSS VDD _1343_ _1431_ _1828_ XOR
X2709 VSS VDD _1827_ _1828_ _1829_ NAND2
X2710 VSS VDD _1827_ _1828_ _1830_ NOR2
X2711 VSS VDD _1827_ _1828_ _1831_ XOR
X2712 VSS VDD finestra_gaussiana4_7_ sensor4_1_ _1832_ NAND2
X2713 VSS VDD finestra_gaussiana4_6_ sensor4_2_ _1833_ NAND2
X2714 VSS VDD finestra_gaussiana4_5_ sensor4_2_ _1814_ _1823_ _1834_ AOI31
X2715 VSS VDD _1833_ _1834_ _1835_ XOR
X2716 VSS VDD finestra_gaussiana4_7_ sensor4_1_ _1835_ _1836_ NAND3
X2717 VSS VDD _1832_ _1835_ _1837_ XOR
X2718 VSS VDD _1830_ _1837_ _1829_ _1838_ OAI21
X2719 VSS VDD _1486_ _1574_ _1839_ XOR
X2720 VSS VDD _1838_ _1839_ _1840_ NAND2
X2721 VSS VDD _1838_ _1839_ _1841_ XOR
X2722 VSS VDD _1833_ _1834_ _1836_ _1842_ OAI21
X2723 VSS VDD _1841_ _1842_ _1843_ NAND2
X2724 VSS VDD _1840_ _1843_ _1844_ NAND2
X2725 VSS VDD _1618_ _1629_ _1845_ XOR
X2726 VSS VDD _1840_ _1843_ _1845_ _1846_ AOI21
X2727 VSS VDD _1844_ _1845_ _1847_ XOR
X2728 VSS VDD sensor4_5_ finestra_gaussiana4_0_ _1848_ NAND2
X2729 VSS VDD finestra_gaussiana4_3_ sensor4_2_ _1849_ NAND2
X2730 VSS VDD finestra_gaussiana4_0_ sensor4_2_ _1850_ NAND2
X2731 VSS VDD _0826_ _1850_ _1851_ NOR2
X2732 VSS VDD _1848_ _1849_ _1852_ XOR
X2733 VSS VDD sensor4_4_ finestra_gaussiana4_1_ _1853_ NAND2
X2734 VSS VDD sensor4_4_ finestra_gaussiana4_1_ _1852_ _1851_ _1854_ AOI31
X2735 VSS VDD _0848_ _1750_ _1855_ XOR
X2736 VSS VDD _1854_ _1855_ _1856_ NOR2
X2737 VSS VDD _1854_ _1855_ _1857_ XOR
X2738 VSS VDD finestra_gaussiana4_5_ sensor4_1_ _1858_ NAND2
X2739 VSS VDD finestra_gaussiana4_4_ sensor4_2_ _1859_ NAND2
X2740 VSS VDD finestra_gaussiana4_2_ sensor4_2_ _1860_ NAND2
X2741 VSS VDD _1387_ _1859_ _1861_ NOR2
X2742 VSS VDD _1387_ _1859_ _1862_ NAND2
X2743 VSS VDD _1387_ _1859_ _1863_ XOR
X2744 VSS VDD _1365_ _1860_ _1862_ _1864_ OAI21
X2745 VSS VDD _1858_ _1864_ _1865_ NOR2
X2746 VSS VDD _1858_ _1864_ _1866_ XOR
X2747 VSS VDD _1858_ _1863_ _1867_ XOR
X2748 VSS VDD _1857_ _1866_ _1868_ NAND2
X2749 VSS VDD _1857_ _1866_ _1856_ _1869_ AOI21
X2750 VSS VDD _1854_ _1855_ _1868_ _1870_ OAI21
X2751 VSS VDD _1783_ _1825_ _1871_ XOR
X2752 VSS VDD _1870_ _1871_ _1872_ NAND2
X2753 VSS VDD _1869_ _1871_ _1873_ XOR
X2754 VSS VDD finestra_gaussiana4_7_ sensor4_0_ _1874_ NAND2
X2755 VSS VDD finestra_gaussiana4_6_ sensor4_1_ _1875_ NAND2
X2756 VSS VDD finestra_gaussiana4_5_ sensor4_1_ _1862_ _1861_ _1876_ AOI31
X2757 VSS VDD _1861_ _1865_ finestra_gaussiana4_6_ sensor4_1_ _1877_ OAI211
X2758 VSS VDD _1875_ _1876_ _1878_ XOR
X2759 VSS VDD finestra_gaussiana4_7_ sensor4_0_ _1878_ _1879_ NAND3
X2760 VSS VDD _1874_ _1878_ _1880_ XOR
X2761 VSS VDD _1873_ _1880_ _1872_ _1881_ OAI21
X2762 VSS VDD _1881_ _1882_ INVERTER
X2763 VSS VDD _1831_ _1837_ _1883_ XOR
X2764 VSS VDD _1882_ _1883_ _1884_ NOR2
X2765 VSS VDD _1881_ _1883_ _1885_ XOR
X2766 VSS VDD _1877_ _1879_ _1886_ NAND2
X2767 VSS VDD _1877_ _1879_ _1885_ _1887_ AOI21
X2768 VSS VDD _1884_ _1887_ _1888_ NOR2
X2769 VSS VDD _1888_ _1889_ INVERTER
X2770 VSS VDD _1841_ _1842_ _1890_ XOR
X2771 VSS VDD _1884_ _1887_ _1890_ _1891_ OAI21
X2772 VSS VDD _1889_ _1890_ _1892_ XOR
X2773 VSS VDD _1888_ _1890_ _1893_ XOR
X2774 VSS VDD finestra_gaussiana4_3_ sensor4_1_ _1894_ NAND2
X2775 VSS VDD finestra_gaussiana4_0_ sensor4_1_ _1895_ NAND2
X2776 VSS VDD _1233_ _1895_ _1896_ NOR2
X2777 VSS VDD _1244_ _1894_ _1897_ XOR
X2778 VSS VDD finestra_gaussiana4_1_ sensor4_3_ _1898_ NAND2
X2779 VSS VDD finestra_gaussiana4_1_ sensor4_3_ _1897_ _1896_ _1899_ AOI31
X2780 VSS VDD _1852_ _1853_ _1900_ XOR
X2781 VSS VDD _1899_ _1900_ _1901_ NOR2
X2782 VSS VDD _1899_ _1900_ _1902_ XOR
X2783 VSS VDD finestra_gaussiana4_5_ sensor4_0_ _1903_ NAND2
X2784 VSS VDD finestra_gaussiana4_4_ sensor4_1_ _1904_ NAND2
X2785 VSS VDD finestra_gaussiana4_2_ sensor4_1_ _1905_ NAND2
X2786 VSS VDD _1804_ _1905_ _1906_ NOR2
X2787 VSS VDD _1822_ _1904_ _1907_ NAND2
X2788 VSS VDD _1804_ _1905_ _1907_ _1908_ OAI21
X2789 VSS VDD _1903_ _1908_ _1909_ XOR
X2790 VSS VDD _1902_ _1909_ _1901_ _1910_ AOI21
X2791 VSS VDD _1857_ _1867_ _1911_ XOR
X2792 VSS VDD _1910_ _1911_ _1912_ XOR
X2793 VSS VDD finestra_gaussiana4_6_ sensor4_0_ _1913_ NAND2
X2794 VSS VDD finestra_gaussiana4_5_ sensor4_0_ _1907_ _1906_ _1914_ AOI31
X2795 VSS VDD _1913_ _1914_ _1915_ NOR2
X2796 VSS VDD _1913_ _1914_ _1916_ XOR
X2797 VSS VDD _1912_ _1916_ _1917_ NAND2
X2798 VSS VDD _1910_ _1911_ _1917_ _1918_ OAI21
X2799 VSS VDD _1873_ _1880_ _1919_ XOR
X2800 VSS VDD _1918_ _1919_ _1920_ NAND2
X2801 VSS VDD _1918_ _1919_ _1921_ XOR
X2802 VSS VDD _1915_ _1921_ _1922_ NAND2
X2803 VSS VDD _1920_ _1922_ _1923_ NAND2
X2804 VSS VDD _1885_ _1886_ _1924_ XOR
X2805 VSS VDD _1920_ _1922_ _1924_ _1925_ AOI21
X2806 VSS VDD _1897_ _1898_ _1926_ XOR
X2807 VSS VDD finestra_gaussiana4_3_ sensor4_0_ _1927_ NAND2
X2808 VSS VDD finestra_gaussiana4_0_ sensor4_0_ _1928_ NAND2
X2809 VSS VDD _1717_ _1928_ _1929_ NOR2
X2810 VSS VDD finestra_gaussiana4_1_ sensor4_2_ _1930_ NAND2
X2811 VSS VDD _1728_ _1927_ _1930_ _1931_ AOI21
X2812 VSS VDD _1929_ _1931_ _1932_ NOR2
X2813 VSS VDD _1926_ _1932_ _1933_ NOR2
X2814 VSS VDD finestra_gaussiana4_4_ sensor4_0_ _1934_ NAND2
X2815 VSS VDD finestra_gaussiana4_2_ sensor4_0_ _1935_ NAND2
X2816 VSS VDD _1859_ _1935_ _1936_ NOR2
X2817 VSS VDD _1860_ _1934_ _1937_ XOR
X2818 VSS VDD _1926_ _1932_ _1938_ XOR
X2819 VSS VDD _1937_ _1938_ _1933_ _1939_ AOI21
X2820 VSS VDD _1939_ _1940_ INVERTER
X2821 VSS VDD _1902_ _1909_ _1941_ XOR
X2822 VSS VDD _1940_ _1941_ _1942_ NAND2
X2823 VSS VDD _1940_ _1941_ _1943_ XOR
X2824 VSS VDD _1939_ _1941_ _1944_ XOR
X2825 VSS VDD _1936_ _1943_ _1945_ NAND2
X2826 VSS VDD _1859_ _1935_ _1942_ _1944_ _1946_ OAI31
X2827 VSS VDD _1912_ _1916_ _1947_ XOR
X2828 VSS VDD _1947_ _1948_ INVERTER
X2829 VSS VDD _1942_ _1945_ _1948_ _1949_ AOI21
X2830 VSS VDD _1946_ _1947_ _1950_ NAND2
X2831 VSS VDD _1915_ _1921_ _1951_ XOR
X2832 VSS VDD _1949_ _1951_ _1952_ NAND2
X2833 VSS VDD _1728_ _1927_ _1953_ XOR
X2834 VSS VDD finestra_gaussiana4_1_ sensor4_1_ _1954_ NAND2
X2835 VSS VDD _1895_ _1930_ _1953_ _1955_ NOR3
X2836 VSS VDD finestra_gaussiana4_0_ sensor4_1_ _1930_ _1956_ AOI21
X2837 VSS VDD finestra_gaussiana4_1_ sensor4_2_ _1895_ _1957_ NAND3
X2838 VSS VDD _1953_ _1957_ _1958_ XOR
X2839 VSS VDD _1953_ _1956_ _1959_ XOR
X2840 VSS VDD _1905_ _1958_ _1960_ NOR2
X2841 VSS VDD finestra_gaussiana4_2_ sensor4_1_ _1959_ _1955_ _1961_ AOI31
X2842 VSS VDD _1937_ _1938_ _1962_ XOR
X2843 VSS VDD _1955_ _1960_ _1962_ _1963_ OAI21
X2844 VSS VDD _1936_ _1943_ _1964_ XOR
X2845 VSS VDD _1936_ _1944_ _1965_ XOR
X2846 VSS VDD _1963_ _1965_ _1966_ NOR2
X2847 VSS VDD _1946_ _1947_ _1967_ XOR
X2848 VSS VDD _1946_ _1948_ _1968_ XOR
X2849 VSS VDD _1966_ _1967_ _1969_ NAND2
X2850 VSS VDD finestra_gaussiana4_1_ sensor4_0_ _1970_ NAND2
X2851 VSS VDD _1928_ _1954_ _1971_ NOR2
X2852 VSS VDD _1850_ _1954_ _1972_ XOR
X2853 VSS VDD _1971_ _1972_ _1973_ NAND2
X2854 VSS VDD _1971_ _1972_ _1974_ NOR2
X2855 VSS VDD _1971_ _1972_ _1975_ XOR
X2856 VSS VDD _1935_ _1974_ _1973_ _1976_ OAI21
X2857 VSS VDD _1905_ _1958_ _1977_ XOR
X2858 VSS VDD _1905_ _1959_ _1978_ XOR
X2859 VSS VDD _1976_ _1977_ _1979_ NAND2
X2860 VSS VDD _1961_ _1962_ _1980_ XOR
X2861 VSS VDD _1979_ _1980_ _1981_ NOR2
X2862 VSS VDD _1964_ _1981_ _1982_ NAND2
X2863 VSS VDD _1966_ _1968_ _1983_ XOR
X2864 VSS VDD _1982_ _1983_ _1969_ _1984_ OAI21
X2865 VSS VDD _1949_ _1951_ _1985_ XOR
X2866 VSS VDD _1950_ _1951_ _1986_ XOR
X2867 VSS VDD _1984_ _1985_ _1987_ NAND2
X2868 VSS VDD _1952_ _1987_ _1988_ NAND2
X2869 VSS VDD _1923_ _1924_ _1989_ XOR
X2870 VSS VDD _1989_ _1990_ INVERTER
X2871 VSS VDD _1952_ _1987_ _1989_ _1991_ AOI21
X2872 VSS VDD _1925_ _1991_ _1992_ NOR2
X2873 VSS VDD _1925_ _1991_ _1892_ _1993_ OAI21
X2874 VSS VDD _1891_ _1993_ _1994_ NAND2
X2875 VSS VDD _1891_ _1993_ _1847_ _1995_ AOI21
X2876 VSS VDD _1846_ _1995_ _1996_ NOR2
X2877 VSS VDD _1695_ _1996_ _1684_ _1997_ OAI21
X2878 VSS VDD _1178_ _1200_ _1998_ XOR
X2879 VSS VDD _1998_ _1999_ INVERTER
X2880 VSS VDD _1997_ _1999_ _1211_ _2000_ AOI21
X2881 VSS VDD _0705_ _0804_ _2001_ XOR
X2882 VSS VDD _2000_ _2001_ _0815_ _2002_ OAI21
X2883 VSS VDD _0760_ _0793_ _2003_ NAND2
X2884 VSS VDD sensor4_6_ finestra_gaussiana4_6_ _0738_ _2004_ AOI21
X2885 VSS VDD _2003_ _2004_ _2005_ NAND2
X2886 VSS VDD _2003_ _2004_ _2006_ XOR
X2887 VSS VDD _2006_ _2007_ INVERTER
X2888 VSS VDD _2002_ _2006_ _2008_ NAND2
X2889 VSS VDD _0716_ _0727_ _2005_ _2008_ _2009_ OAI211
X2890 VSS VDD sensor5_7_ finestra_gaussiana5_3_ _2010_ NAND2
X2891 VSS VDD _2010_ _2011_ INVERTER
X2892 VSS VDD sensor5_6_ finestra_gaussiana5_4_ _2012_ NAND2
X2893 VSS VDD finestra_gaussiana5_5_ sensor5_5_ _2013_ NAND2
X2894 VSS VDD sensor5_6_ finestra_gaussiana5_5_ _2014_ NAND2
X2895 VSS VDD finestra_gaussiana5_4_ sensor5_5_ _2015_ NAND2
X2896 VSS VDD _2014_ _2015_ _2016_ NOR2
X2897 VSS VDD _2012_ _2013_ _2017_ XOR
X2898 VSS VDD _2011_ _2017_ _2018_ NAND2
X2899 VSS VDD sensor5_7_ finestra_gaussiana5_4_ _2019_ NAND2
X2900 VSS VDD sensor5_7_ finestra_gaussiana5_5_ _2020_ NAND2
X2901 VSS VDD _2012_ _2020_ _2021_ NOR2
X2902 VSS VDD _2014_ _2019_ _2022_ XOR
X2903 VSS VDD _2018_ _2022_ _2023_ XOR
X2904 VSS VDD finestra_gaussiana5_7_ sensor5_4_ _2024_ NAND2
X2905 VSS VDD finestra_gaussiana5_6_ _2016_ _2025_ NAND2
X2906 VSS VDD finestra_gaussiana5_6_ sensor5_5_ _2016_ _2026_ AOI21
X2907 VSS VDD finestra_gaussiana5_6_ _2016_ _2026_ _2027_ AOI21
X2908 VSS VDD finestra_gaussiana5_7_ sensor5_4_ _2027_ _2028_ AOI21
X2909 VSS VDD finestra_gaussiana5_6_ _2016_ _2024_ _2026_ _2029_ AOI211
X2910 VSS VDD finestra_gaussiana5_7_ sensor5_4_ _2027_ _2030_ NAND3
X2911 VSS VDD _2028_ _2029_ _2031_ NOR2
X2912 VSS VDD _2024_ _2027_ _2032_ XOR
X2913 VSS VDD _2023_ _2032_ _2033_ NOR2
X2914 VSS VDD _2011_ _2017_ _2022_ _2033_ _2034_ AOI31
X2915 VSS VDD finestra_gaussiana5_7_ sensor5_5_ _2035_ NAND2
X2916 VSS VDD finestra_gaussiana5_6_ _2021_ _2036_ NAND2
X2917 VSS VDD sensor5_6_ finestra_gaussiana5_6_ _2037_ NAND2
X2918 VSS VDD sensor5_6_ finestra_gaussiana5_6_ _2021_ _2038_ AOI21
X2919 VSS VDD _2012_ _2020_ _2037_ _2039_ OAI21
X2920 VSS VDD finestra_gaussiana5_6_ _2021_ _2038_ _2040_ AOI21
X2921 VSS VDD _2036_ _2039_ _2041_ NAND2
X2922 VSS VDD _2035_ _2041_ _2042_ XOR
X2923 VSS VDD _2035_ _2040_ _2043_ XOR
X2924 VSS VDD _2020_ _2043_ _2044_ NOR2
X2925 VSS VDD _2020_ _2043_ _2045_ XOR
X2926 VSS VDD _2020_ _2042_ _2046_ XOR
X2927 VSS VDD _2034_ _2046_ _2047_ NOR2
X2928 VSS VDD _2034_ _2045_ _2048_ XOR
X2929 VSS VDD _2024_ _2026_ _2025_ _2049_ OAI21
X2930 VSS VDD _2025_ _2030_ _2048_ _2050_ AOI21
X2931 VSS VDD _2047_ _2050_ _2051_ NOR2
X2932 VSS VDD finestra_gaussiana5_6_ sensor5_7_ _2052_ NAND2
X2933 VSS VDD finestra_gaussiana5_7_ sensor5_6_ _2053_ NAND2
X2934 VSS VDD finestra_gaussiana5_7_ sensor5_7_ _2054_ NAND2
X2935 VSS VDD _2052_ _2053_ _2055_ XOR
X2936 VSS VDD _2044_ _2055_ _2056_ NAND2
X2937 VSS VDD _2044_ _2055_ _2057_ XOR
X2938 VSS VDD _2035_ _2038_ _2036_ _2058_ OAI21
X2939 VSS VDD _2057_ _2058_ _2059_ NAND2
X2940 VSS VDD _2057_ _2058_ _2060_ XOR
X2941 VSS VDD _2047_ _2050_ _2060_ _2061_ OAI21
X2942 VSS VDD sensor5_5_ finestra_gaussiana5_3_ _2062_ NAND2
X2943 VSS VDD sensor5_7_ finestra_gaussiana5_1_ _2063_ NAND2
X2944 VSS VDD sensor5_5_ finestra_gaussiana5_1_ _2064_ NAND2
X2945 VSS VDD _2010_ _2064_ _2065_ NOR2
X2946 VSS VDD sensor5_6_ _2065_ _2066_ NAND2
X2947 VSS VDD sensor5_6_ finestra_gaussiana5_3_ _2067_ NAND2
X2948 VSS VDD _2010_ _2064_ _2067_ _2068_ OAI21
X2949 VSS VDD _2066_ _2068_ _2069_ NAND2
X2950 VSS VDD finestra_gaussiana5_5_ sensor5_4_ _2070_ NAND2
X2951 VSS VDD sensor5_7_ finestra_gaussiana5_2_ _2071_ NAND2
X2952 VSS VDD sensor5_5_ finestra_gaussiana5_2_ _2072_ NAND2
X2953 VSS VDD _2019_ _2072_ _2073_ NOR2
X2954 VSS VDD _2015_ _2071_ _2074_ XOR
X2955 VSS VDD _2070_ _2074_ _2075_ XOR
X2956 VSS VDD _2069_ _2075_ _2066_ _2076_ OAI21
X2957 VSS VDD _2011_ _2017_ _2077_ XOR
X2958 VSS VDD _2010_ _2017_ _2078_ XOR
X2959 VSS VDD _2076_ _2077_ _2079_ XOR
X2960 VSS VDD _2076_ _2078_ _2080_ XOR
X2961 VSS VDD finestra_gaussiana5_7_ sensor5_3_ _2081_ NAND2
X2962 VSS VDD finestra_gaussiana5_6_ sensor5_4_ _2082_ NAND2
X2963 VSS VDD finestra_gaussiana5_5_ sensor5_4_ _2074_ _2073_ _2083_ AOI31
X2964 VSS VDD _2082_ _2083_ _2084_ XOR
X2965 VSS VDD finestra_gaussiana5_7_ sensor5_3_ _2084_ _2085_ NAND3
X2966 VSS VDD _2081_ _2084_ _2086_ XOR
X2967 VSS VDD _2080_ _2086_ _2087_ NOR2
X2968 VSS VDD _2076_ _2077_ _2087_ _2088_ AOI21
X2969 VSS VDD _2023_ _2031_ _2089_ XOR
X2970 VSS VDD _2088_ _2089_ _2090_ NOR2
X2971 VSS VDD _2088_ _2089_ _2091_ XOR
X2972 VSS VDD _2082_ _2083_ _2085_ _2092_ OAI21
X2973 VSS VDD _2091_ _2092_ _2090_ _2093_ AOI21
X2974 VSS VDD _2048_ _2049_ _2094_ XOR
X2975 VSS VDD _2093_ _2094_ _2095_ NOR2
X2976 VSS VDD sensor5_7_ finestra_gaussiana5_0_ _2096_ NAND2
X2977 VSS VDD finestra_gaussiana5_3_ sensor5_4_ _2097_ NAND2
X2978 VSS VDD sensor5_4_ finestra_gaussiana5_0_ _2098_ NAND2
X2979 VSS VDD _2010_ _2098_ _2099_ NOR2
X2980 VSS VDD _2096_ _2097_ _2100_ XOR
X2981 VSS VDD sensor5_6_ finestra_gaussiana5_1_ _2101_ NAND2
X2982 VSS VDD sensor5_6_ finestra_gaussiana5_1_ _2100_ _2102_ NAND3
X2983 VSS VDD sensor5_6_ finestra_gaussiana5_1_ _2100_ _2099_ _2103_ AOI31
X2984 VSS VDD _2010_ _2098_ _2102_ _2104_ OAI21
X2985 VSS VDD _2062_ _2063_ _2105_ XOR
X2986 VSS VDD _2104_ _2105_ _2106_ NAND2
X2987 VSS VDD _2103_ _2105_ _2107_ XOR
X2988 VSS VDD finestra_gaussiana5_5_ sensor5_3_ _2108_ NAND2
X2989 VSS VDD finestra_gaussiana5_4_ sensor5_4_ _2109_ NAND2
X2990 VSS VDD sensor5_6_ finestra_gaussiana5_2_ _2110_ NAND2
X2991 VSS VDD sensor5_4_ finestra_gaussiana5_2_ _2111_ NAND2
X2992 VSS VDD _2012_ _2111_ _2112_ NOR2
X2993 VSS VDD _2109_ _2110_ _2113_ XOR
X2994 VSS VDD finestra_gaussiana5_5_ sensor5_3_ _2113_ _2114_ NAND3
X2995 VSS VDD _2108_ _2113_ _2115_ XOR
X2996 VSS VDD _2107_ _2115_ _2106_ _2116_ OAI21
X2997 VSS VDD _2069_ _2075_ _2117_ XOR
X2998 VSS VDD _2116_ _2117_ _2118_ NAND2
X2999 VSS VDD _2116_ _2117_ _2119_ XOR
X3000 VSS VDD finestra_gaussiana5_7_ sensor5_2_ _2120_ NAND2
X3001 VSS VDD finestra_gaussiana5_6_ sensor5_3_ _2121_ NAND2
X3002 VSS VDD finestra_gaussiana5_5_ sensor5_3_ _2113_ _2112_ _2122_ AOI31
X3003 VSS VDD _2012_ _2111_ _2114_ _2123_ OAI21
X3004 VSS VDD finestra_gaussiana5_6_ sensor5_3_ _2123_ _2124_ NAND3
X3005 VSS VDD _2121_ _2122_ _2125_ XOR
X3006 VSS VDD _2121_ _2123_ _2126_ XOR
X3007 VSS VDD finestra_gaussiana5_7_ sensor5_2_ _2125_ _2127_ NAND3
X3008 VSS VDD _2120_ _2126_ _2128_ XOR
X3009 VSS VDD _2120_ _2125_ _2129_ XOR
X3010 VSS VDD _2119_ _2128_ _2130_ NAND2
X3011 VSS VDD _2118_ _2130_ _2131_ NAND2
X3012 VSS VDD _2079_ _2086_ _2132_ XOR
X3013 VSS VDD _2118_ _2130_ _2132_ _2133_ AOI21
X3014 VSS VDD _2131_ _2132_ _2134_ XOR
X3015 VSS VDD _2124_ _2127_ _2135_ NAND2
X3016 VSS VDD _2124_ _2127_ _2134_ _2136_ AOI21
X3017 VSS VDD _2133_ _2136_ _2137_ NOR2
X3018 VSS VDD _2091_ _2092_ _2138_ XOR
X3019 VSS VDD _2133_ _2136_ _2138_ _2139_ OAI21
X3020 VSS VDD _2137_ _2138_ _2140_ XOR
X3021 VSS VDD _2140_ _2141_ INVERTER
X3022 VSS VDD sensor5_6_ finestra_gaussiana5_0_ _2142_ NAND2
X3023 VSS VDD finestra_gaussiana5_3_ sensor5_3_ _2143_ NAND2
X3024 VSS VDD sensor5_3_ finestra_gaussiana5_0_ _2144_ NAND2
X3025 VSS VDD _2067_ _2144_ _2145_ NOR2
X3026 VSS VDD _2142_ _2143_ _2146_ XOR
X3027 VSS VDD sensor5_5_ finestra_gaussiana5_1_ _2146_ _2145_ _2147_ AOI31
X3028 VSS VDD _2100_ _2101_ _2148_ XOR
X3029 VSS VDD _2147_ _2148_ _2149_ XOR
X3030 VSS VDD finestra_gaussiana5_5_ sensor5_2_ _2150_ NAND2
X3031 VSS VDD finestra_gaussiana5_4_ sensor5_3_ _2151_ NAND2
X3032 VSS VDD finestra_gaussiana5_2_ sensor5_3_ _2152_ NAND2
X3033 VSS VDD _2015_ _2152_ _2153_ NOR2
X3034 VSS VDD _2072_ _2151_ _2154_ NAND2
X3035 VSS VDD _2072_ _2151_ _2155_ XOR
X3036 VSS VDD _2015_ _2152_ _2154_ _2156_ OAI21
X3037 VSS VDD finestra_gaussiana5_5_ sensor5_2_ _2155_ _2157_ NAND3
X3038 VSS VDD _2150_ _2156_ _2158_ XOR
X3039 VSS VDD _2149_ _2158_ _2159_ NAND2
X3040 VSS VDD _2147_ _2148_ _2159_ _2160_ OAI21
X3041 VSS VDD _2107_ _2115_ _2161_ XOR
X3042 VSS VDD _2160_ _2161_ _2162_ NAND2
X3043 VSS VDD _2160_ _2161_ _2163_ XOR
X3044 VSS VDD finestra_gaussiana5_7_ sensor5_1_ _2164_ NAND2
X3045 VSS VDD finestra_gaussiana5_6_ sensor5_2_ _2165_ NAND2
X3046 VSS VDD finestra_gaussiana5_5_ sensor5_2_ _2154_ _2153_ _2166_ AOI31
X3047 VSS VDD _2015_ _2152_ _2157_ _2167_ OAI21
X3048 VSS VDD _2165_ _2166_ _2168_ XOR
X3049 VSS VDD _2165_ _2167_ _2169_ XOR
X3050 VSS VDD finestra_gaussiana5_7_ sensor5_1_ _2168_ _2170_ NAND3
X3051 VSS VDD _2164_ _2169_ _2171_ XOR
X3052 VSS VDD _2164_ _2168_ _2172_ XOR
X3053 VSS VDD _2163_ _2171_ _2173_ NAND2
X3054 VSS VDD _2162_ _2173_ _2174_ NAND2
X3055 VSS VDD _2119_ _2129_ _2175_ XOR
X3056 VSS VDD _2162_ _2173_ _2175_ _2176_ AOI21
X3057 VSS VDD _2162_ _2173_ _2175_ _2177_ NAND3
X3058 VSS VDD _2174_ _2175_ _2178_ XOR
X3059 VSS VDD _2165_ _2166_ _2170_ _2179_ OAI21
X3060 VSS VDD _2179_ _2180_ INVERTER
X3061 VSS VDD _2177_ _2179_ _2176_ _2181_ AOI21
X3062 VSS VDD _2134_ _2135_ _2182_ XOR
X3063 VSS VDD _2181_ _2182_ _2183_ NOR2
X3064 VSS VDD _2181_ _2182_ _2184_ XOR
X3065 VSS VDD sensor5_5_ finestra_gaussiana5_0_ _2185_ NAND2
X3066 VSS VDD finestra_gaussiana5_3_ sensor5_2_ _2186_ NAND2
X3067 VSS VDD finestra_gaussiana5_0_ sensor5_2_ _2187_ NAND2
X3068 VSS VDD _2062_ _2187_ _2188_ NOR2
X3069 VSS VDD sensor5_4_ finestra_gaussiana5_1_ _2189_ NAND2
X3070 VSS VDD _2189_ _2190_ INVERTER
X3071 VSS VDD _2185_ _2186_ _2191_ XOR
X3072 VSS VDD _2190_ _2191_ _2188_ _2192_ AOI21
X3073 VSS VDD _2064_ _2146_ _2193_ XOR
X3074 VSS VDD _2192_ _2193_ _2194_ NOR2
X3075 VSS VDD _2192_ _2193_ _2195_ XOR
X3076 VSS VDD finestra_gaussiana5_5_ sensor5_1_ _2196_ NAND2
X3077 VSS VDD finestra_gaussiana5_4_ sensor5_2_ _2197_ NAND2
X3078 VSS VDD _2197_ _2198_ INVERTER
X3079 VSS VDD finestra_gaussiana5_2_ sensor5_2_ _2199_ NAND2
X3080 VSS VDD _2111_ _2197_ _2200_ NOR2
X3081 VSS VDD _2111_ _2197_ _2201_ NAND2
X3082 VSS VDD _2111_ _2198_ _2202_ XOR
X3083 VSS VDD _2196_ _2202_ _2203_ XOR
X3084 VSS VDD _2195_ _2203_ _2194_ _2204_ AOI21
X3085 VSS VDD _2204_ _2205_ INVERTER
X3086 VSS VDD _2149_ _2158_ _2206_ XOR
X3087 VSS VDD _2205_ _2206_ _2207_ NAND2
X3088 VSS VDD _2204_ _2206_ _2208_ XOR
X3089 VSS VDD finestra_gaussiana5_7_ sensor5_0_ _2209_ NAND2
X3090 VSS VDD finestra_gaussiana5_6_ sensor5_1_ _2210_ NAND2
X3091 VSS VDD finestra_gaussiana5_5_ sensor5_1_ _2201_ _2200_ _2211_ AOI31
X3092 VSS VDD _2210_ _2211_ _2212_ NOR2
X3093 VSS VDD _2210_ _2211_ _2213_ XOR
X3094 VSS VDD _2209_ _2213_ _2214_ XOR
X3095 VSS VDD _2208_ _2214_ _2207_ _2215_ OAI21
X3096 VSS VDD _2215_ _2216_ INVERTER
X3097 VSS VDD _2163_ _2171_ _2217_ XOR
X3098 VSS VDD _2163_ _2172_ _2218_ XOR
X3099 VSS VDD _2216_ _2218_ _2219_ NOR2
X3100 VSS VDD _2215_ _2217_ _2220_ XOR
X3101 VSS VDD _2215_ _2218_ _2221_ XOR
X3102 VSS VDD finestra_gaussiana5_7_ sensor5_0_ _2213_ _2212_ _2222_ AOI31
X3103 VSS VDD _2221_ _2222_ _2223_ NOR2
X3104 VSS VDD _2219_ _2223_ _2224_ NOR2
X3105 VSS VDD _2178_ _2180_ _2225_ XOR
X3106 VSS VDD _2178_ _2179_ _2226_ XOR
X3107 VSS VDD _2219_ _2223_ _2225_ _2227_ OAI21
X3108 VSS VDD _2224_ _2226_ _2228_ XOR
X3109 VSS VDD _2224_ _2225_ _2229_ XOR
X3110 VSS VDD finestra_gaussiana5_3_ sensor5_1_ _2230_ NAND2
X3111 VSS VDD finestra_gaussiana5_0_ sensor5_1_ _2231_ NAND2
X3112 VSS VDD _2097_ _2231_ _2232_ NOR2
X3113 VSS VDD finestra_gaussiana5_1_ sensor5_3_ _2233_ NAND2
X3114 VSS VDD _2233_ _2234_ INVERTER
X3115 VSS VDD _2098_ _2230_ _2235_ XOR
X3116 VSS VDD _2234_ _2235_ _2232_ _2236_ AOI21
X3117 VSS VDD _2190_ _2191_ _2237_ XOR
X3118 VSS VDD _2189_ _2191_ _2238_ XOR
X3119 VSS VDD _2236_ _2238_ _2239_ NOR2
X3120 VSS VDD _2236_ _2238_ _2240_ XOR
X3121 VSS VDD _2236_ _2237_ _2241_ XOR
X3122 VSS VDD finestra_gaussiana5_5_ sensor5_0_ _2242_ NAND2
X3123 VSS VDD _2242_ _2243_ INVERTER
X3124 VSS VDD finestra_gaussiana5_4_ sensor5_1_ _2244_ NAND2
X3125 VSS VDD finestra_gaussiana5_2_ sensor5_1_ _2245_ NAND2
X3126 VSS VDD _2151_ _2245_ _2246_ NOR2
X3127 VSS VDD _2152_ _2244_ _2247_ XOR
X3128 VSS VDD _2243_ _2247_ _2248_ NAND2
X3129 VSS VDD _2243_ _2247_ _2249_ XOR
X3130 VSS VDD _2242_ _2247_ _2250_ XOR
X3131 VSS VDD _2241_ _2250_ _2251_ NOR2
X3132 VSS VDD _2240_ _2249_ _2239_ _2252_ AOI21
X3133 VSS VDD _2195_ _2203_ _2253_ XOR
X3134 VSS VDD _2239_ _2251_ _2253_ _2254_ OAI21
X3135 VSS VDD _2252_ _2253_ _2255_ XOR
X3136 VSS VDD finestra_gaussiana5_6_ sensor5_0_ _2256_ NAND2
X3137 VSS VDD _2243_ _2247_ _2246_ _2257_ AOI21
X3138 VSS VDD _2151_ _2245_ _2248_ _2258_ OAI21
X3139 VSS VDD _2256_ _2257_ _2259_ NOR2
X3140 VSS VDD _2256_ _2257_ _2260_ XOR
X3141 VSS VDD _2256_ _2258_ _2261_ XOR
X3142 VSS VDD _2255_ _2261_ _2254_ _2262_ OAI21
X3143 VSS VDD _2208_ _2214_ _2263_ XOR
X3144 VSS VDD _2262_ _2263_ _2264_ NAND2
X3145 VSS VDD _2262_ _2263_ _2265_ XOR
X3146 VSS VDD _2259_ _2265_ _2266_ NAND2
X3147 VSS VDD _2264_ _2266_ _2267_ NAND2
X3148 VSS VDD _2221_ _2222_ _2268_ XOR
X3149 VSS VDD _2220_ _2222_ _2269_ XOR
X3150 VSS VDD _2264_ _2266_ _2269_ _2270_ AOI21
X3151 VSS VDD _2234_ _2235_ _2271_ XOR
X3152 VSS VDD _2233_ _2235_ _2272_ XOR
X3153 VSS VDD finestra_gaussiana5_3_ sensor5_0_ _2273_ NAND2
X3154 VSS VDD finestra_gaussiana5_0_ sensor5_0_ _2274_ NAND2
X3155 VSS VDD _2143_ _2274_ _2275_ NOR2
X3156 VSS VDD finestra_gaussiana5_1_ sensor5_2_ _2276_ NAND2
X3157 VSS VDD _2144_ _2273_ _2276_ _2277_ AOI21
X3158 VSS VDD _2275_ _2277_ _2278_ NOR2
X3159 VSS VDD _2272_ _2278_ _2279_ NOR2
X3160 VSS VDD _2272_ _2278_ _2280_ XOR
X3161 VSS VDD _2271_ _2278_ _2281_ XOR
X3162 VSS VDD finestra_gaussiana5_4_ sensor5_0_ _2282_ NAND2
X3163 VSS VDD finestra_gaussiana5_2_ sensor5_0_ _2283_ NAND2
X3164 VSS VDD _2197_ _2283_ _2284_ NOR2
X3165 VSS VDD finestra_gaussiana5_2_ sensor5_0_ _2198_ _2285_ NAND3
X3166 VSS VDD _2199_ _2282_ _2286_ XOR
X3167 VSS VDD _2286_ _2287_ INVERTER
X3168 VSS VDD _2281_ _2287_ _2288_ NOR2
X3169 VSS VDD _2280_ _2286_ _2279_ _2289_ AOI21
X3170 VSS VDD _2240_ _2249_ _2290_ XOR